/*--------------------------------*- C++ -*----------------------------------*\
  =========                 |
  \\      /  F ield         | OpenFOAM: The Open Source CFD Toolbox
   \\    /   O peration     | Website:  https://openfoam.org
    \\  /    A nd           | Version:  7
     \\/     M anipulation  |
\*---------------------------------------------------------------------------*/
FoamFile
{
    version     2.0;
    format      ascii;
    class       volScalarField;
    location    "0";
    object      T;
}
// * * * * * * * * * * * * * * * * * * * * * * * * * * * * * * * * * * * * * //

dimensions      [0 0 0 1 0 0 0];
T		214;
internalField   uniform $T;

boundaryField
{
    bypassInlet
    {
        type            totalTemperature;
        gamma           1.4;
        T0              uniform 290;
        value           uniform 290;
    }
    "engine|nozzle"
    {
        type            zeroGradient;
    }
    farfield
    {
        type            zeroGradient;
    }
    inlet
    {
        type            inletOutlet;
        inletValue      uniform $T;
        value           uniform $T;
    }
    outlet
    {
        type            zeroGradient;
    }
    turbine
    {
        type            totalTemperature;
        gamma           1.4;
        T0              uniform 600;
        value           uniform 600;
    }
    "wedgeR|wedgeL"
    {
        type            wedge;
    }
}


// ************************************************************************* //
